data/PT/Transmission_Network_PT/Transmission_Network_PT_2020_BCK.m
function mpc = Transmission_Network_PT_2020

%% MATPOWER Case Format : Version 2
mpc.version = '2';

%%-----  Power Flow Data  -----%%
%% system MVA base
mpc.baseMVA = 100;

%% bus data
%	bus_i	type	Pd	Qd	Gs	Bs	area	Vm	Va	baseKV	zone	Vmax	Vmin
mpc.bus = [
	1	2	0.000	0.000	0	0	1	1	0	400	1	1.05	0.95	;
	2	2	0.000	0.000	0	0	1	1	0	400	1	1.05	0.95	;
	3	2	0.000	0.000	0	0	1	1	0	400	1	1.05	0.95	;
	4	2	0.000	0.000	0	0	1	1	0	400	1	1.05	0.95	;
	5	2	0.000	0.000	0	0	1	1	0	220	1	1.05	0.95	;
	6	2	0.000	0.000	0	0	1	1	0	220	1	1.05	0.95	;
	7	2	0.000	0.000	0	0	1	1	0	400	1	1.05	0.95	;
	8	1	0.000	0.000	0	0	1	1	0	150	2	1.05	0.95	;
	9	1	0.000	0.000	0	0	1	1	0	150	2	1.05	0.95	;
	10	1	0.000	0.000	0	0	1	1	0	150	2	1.05	0.95	;
	11	1	0.967	-0.097	0	0	1	1	0	150	2	1.05	0.95	;
	12	1	0.000	0.000	0	0	1	1	0	150	2	1.05	0.95	;
	13	1	3.870	1.161	0	0	1	1	0	150	2	1.05	0.95	;
	14	1	0.000	0.000	0	0	1	1	0	150	2	1.05	0.95	;
	15	1	0.000	0.000	0	0	1	1	0	150	2	1.05	0.95	;
	16	1	0.000	0.000	0	0	1	1	0	150	2	1.05	0.95	;
	17	1	0.000	0.000	0	0	1	1	0	150	2	1.05	0.95	;
	18	1	0.000	0.000	0	0	1	1	0	150	2	1.05	0.95	;
	19	1	0.000	0.000	0	0	1	1	0	150	2	1.05	0.95	;
	20	1	0.000	0.000	0	0	1	1	0	150	2	1.05	0.95	;
	21	1	0.000	0.000	0	0	1	1	0	150	2	1.05	0.95	;
	22	2	0.000	0.000	0	0	1	1	0	150	2	1.05	0.95	;
	23	1	0.000	0.000	0	0	1	1	0	150	2	1.05	0.95	;
	24	1	0.000	0.000	0	0	1	1	0	150	2	1.05	0.95	;
	25	1	0.000	0.000	0	0	1	1	0	150	2	1.05	0.95	;
	26	1	3.289	0.387	0	0	1	1	0	150	2	1.05	0.95	;
	27	1	0.000	-0.300	0	0	1	1	0	150	2	1.05	0.95	;
	28	1	0.193	-0.193	0	0	1	1	0	150	2	1.05	0.95	;
	29	1	0.000	0.000	0	0	1	1	0	150	2	1.05	0.95	;
	30	2	0.000	0.000	0	0	1	1	0	150	2	1.05	0.95	;
	31	1	0.000	0.000	0	0	1	1	0	150	2	1.05	0.95	;
	32	1	0.000	0.000	0	0	1	1	0	150	2	1.05	0.95	;
	33	1	0.000	0.000	0	0	1	1	0	150	2	1.05	0.95	;
	34	1	0.000	0.000	0	-75	1	1	0	150	2	1.05	0.95	;
	35	1	0.000	0.000	0	0	1	1	0	150	2	1.05	0.95	;
	36	1	0.000	0.000	0	0	1	1	0	220	2	1.05	0.95	;
	37	1	0.000	0.000	0	0	1	1	0	220	2	1.05	0.95	;
	38	1	0.000	0.000	0	0	1	1	0	220	2	1.05	0.95	;
	39	1	0.000	0.000	0	0	1	1	0	220	2	1.05	0.95	;
	40	1	0.000	0.000	0	0	1	1	0	220	2	1.05	0.95	;
	41	1	0.000	0.000	0	0	1	1	0	220	2	1.05	0.95	;
	42	1	0.000	0.000	0	0	1	1	0	220	2	1.05	0.95	;
	43	1	0.000	0.000	0	0	1	1	0	220	2	1.05	0.95	;
	44	1	0.000	0.000	0	0	1	1	0	220	2	1.05	0.95	;
	45	1	0.000	0.000	0	0	1	1	0	220	2	1.05	0.95	;
	46	1	0.000	0.000	0	0	1	1	0	220	2	1.05	0.95	;
	47	1	0.000	0.000	0	0	1	1	0	220	2	1.05	0.95	;
	48	1	0.000	0.000	0	0	1	1	0	220	2	1.05	0.95	;
	49	1	0.000	0.000	0	0	1	1	0	220	2	1.05	0.95	;
	50	1	0.000	0.000	0	100	1	1	0	220	2	1.05	0.95	;
	51	1	0.000	0.000	0	0	1	1	0	220	2	1.05	0.95	;
	52	1	0.000	0.000	0	0	1	1	0	220	2	1.05	0.95	;
	53	1	0.000	0.000	0	0	1	1	0	220	2	1.05	0.95	;
	54	1	0.000	0.000	0	0	1	1	0	220	2	1.05	0.95	;
	55	1	0.000	0.000	0	0	1	1	0	220	2	1.05	0.95	;
	56	1	0.000	0.000	0	100	1	1	0	220	2	1.05	0.95	;
	57	1	0.000	0.000	0	0	1	1	0	220	2	1.05	0.95	;
	58	1	0.000	0.000	0	0	1	1	0	220	2	1.05	0.95	;
	59	1	0.000	0.000	0	0	1	1	0	220	2	1.05	0.95	;
	60	1	0.000	0.000	0	0	1	1	0	220	2	1.05	0.95	;
	61	2	0.000	0.000	0	0	1	1	0	220	2	1.05	0.95	;
	62	1	0.000	0.000	0	0	1	1	0	220	2	1.05	0.95	;
	63	1	0.000	0.000	0	0	1	1	0	220	2	1.05	0.95	;
	64	1	0.000	0.000	0	0	1	1	0	220	2	1.05	0.95	;
	65	1	0.000	0.000	0	0	1	1	0	220	2	1.05	0.95	;
	66	1	0.000	0.000	0	0	1	1	0	220	2	1.05	0.95	;
	67	1	1.161	-0.097	0	0	1	1	0	220	2	1.05	0.95	;
	68	1	0.000	0.000	0	0	1	1	0	220	2	1.05	0.95	;
	69	1	0.000	0.000	0	0	1	1	0	220	2	1.05	0.95	;
	70	1	0.000	0.000	0	0	1	1	0	220	2	1.05	0.95	;
	71	1	0.000	0.000	0	0	1	1	0	220	2	1.05	0.95	;
	72	1	0.000	0.000	0	-70	1	1	0	220	2	1.05	0.95	;
	73	1	0.000	0.000	0	0	1	1	0	220	2	1.05	0.95	;
	74	1	0.000	0.000	0	0	1	1	0	220	2	1.05	0.95	;
	75	1	0.000	0.000	0	0	1	1	0	220	2	1.05	0.95	;
	76	1	0.000	0.000	0	0	1	1	0	220	2	1.05	0.95	;
	77	1	0.000	0.000	0	0	1	1	0	220	2	1.05	0.95	;
	78	1	0.000	0.000	0	-70	1	1	0	220	2	1.05	0.95	;
	79	1	0.000	0.000	0	0	1	1	0	220	2	1.05	0.95	;
	80	1	0.000	0.000	0	0	1	1	0	400	2	1.05	0.95	;
	81	1	0.000	0.000	0	0	1	1	0	400	2	1.05	0.95	;
	82	1	0.000	0.000	0	0	1	1	0	400	2	1.05	0.95	;
	83	1	0.000	0.000	0	0	1	1	0	400	2	1.05	0.95	;
	84	1	0.000	0.000	0	0	1	1	0	400	2	1.05	0.95	;
	85	1	0.000	0.000	0	-150	1	1	0	400	2	1.05	0.95	;
	86	1	0.000	0.000	0	0	1	1	0	400	2	1.05	0.95	;
	87	1	0.000	0.000	0	0	1	1	0	400	2	1.05	0.95	;
	88	1	0.000	0.000	0	0	1	1	0	400	2	1.05	0.95	;
	89	1	0.000	0.000	0	-150	1	1	0	400	2	1.05	0.95	;
	90	1	0.000	0.000	0	-150	1	1	0	400	2	1.05	0.95	;
	91	1	0.000	0.000	0	0	1	1	0	400	2	1.05	0.95	;
	92	1	0.000	0.000	0	-150	1	1	0	400	2	1.05	0.95	;
	93	1	0.000	0.000	0	0	1	1	0	400	2	1.05	0.95	;
	94	1	0.000	0.000	0	0	1	1	0	400	2	1.05	0.95	;
	95	1	0.000	0.000	0	0	1	1	0	400	2	1.05	0.95	;
	96	1	0.000	0.000	0	0	1	1	0	400	2	1.05	0.95	;
	97	1	0.000	0.000	0	0	1	1	0	400	2	1.05	0.95	;
	98	1	0.000	0.000	0	0	1	1	0	400	2	1.05	0.95	;
	99	1	0.000	0.000	0	0	1	1	0	400	2	1.05	0.95	;
	100	1	0.000	0.000	0	0	1	1	0	400	2	1.05	0.95	;
	101	1	0.000	0.000	0	-150	1	1	0	400	2	1.05	0.95	;
	102	1	0.000	0.000	0	-150	1	1	0	400	2	1.05	0.95	;
	103	1	0.000	0.000	0	0	1	1	0	400	2	1.05	0.95	;
	104	1	0.000	0.000	0	-150	1	1	0	400	2	1.05	0.95	;
	105	1	0.000	0.000	0	0	1	1	0	400	2	1.05	0.95	;
	106	1	0.000	0.000	0	0	1	1	0	400	2	1.05	0.95	;
	107	1	0.000	0.000	0	0	1	1	0	400	2	1.05	0.95	;
	108	2	16.515	1.651	0	0	1	1	0	130	2	1.05	0.95	;
	109	2	288.038	28.804	0	0	1	1	0	63	2	1.05	0.95	;
	110	2	180.569	18.057	0	0	1	1	0	63	2	1.05	0.95	;
	111	2	171.406	17.141	0	0	1	1	0	63	2	1.05	0.95	;
	112	2	227.436	22.744	0	0	1	1	0	63	2	1.05	0.95	;
	113	2	78.735	7.874	0	0	1	1	0	63	2	1.05	0.95	;
	114	2	175.897	17.590	0	0	1	1	0	63	2	1.05	0.95	;
	115	2	64.577	6.458	0	0	1	1	0	63	2	1.05	0.95	;
	116	2	347.998	34.800	0	0	1	1	0	63	2	1.05	0.95	;
	117	2	57.952	5.795	0	0	1	1	0	63	2	1.05	0.95	;
	118	2	130.434	13.043	0	0	1	1	0	63	2	1.05	0.95	;
	119	2	263.377	26.338	0	0	1	1	0	63	2	1.05	0.95	;
	120	2	150.924	15.092	0	0	1	1	0	63	2	1.05	0.95	;
	121	2	128.818	12.882	0	0	1	1	0	63	2	1.05	0.95	;
	122	2	240.423	24.042	0	0	1	1	0	63	2	1.05	0.95	;
	123	2	208.300	20.830	0	0	1	1	0	63	2	1.05	0.95	;
	124	2	141.982	14.198	0	0	1	1	0	63	2	1.05	0.95	;
	125	2	135.760	13.576	0	0	1	1	0	63	2	1.05	0.95	;
	126	2	100.672	10.067	0	0	1	1	0	63	2	1.05	0.95	;
	127	2	88.985	8.899	0	0	1	1	0	63	2	1.05	0.95	;
	128	2	337.562	33.756	0	0	1	1	0	63	2	1.05	0.95	;
	129	2	305.236	30.524	0	0	1	1	0	63	2	1.05	0.95	;
	130	2	368.392	36.839	0	0	1	1	0	63	2	1.05	0.95	;
	131	2	159.277	15.928	0	0	1	1	0	63	2	1.05	0.95	;
	132	2	11.766	1.177	0	0	1	1	0	63	2	1.05	0.95	;
	133	2	141.085	14.108	0	0	1	1	0	63	2	1.05	0.95	;
	134	2	196.118	19.612	0	0	1	1	0	63	2	1.05	0.95	;
	135	1	213.910	12.577	0	0	1	1	0	63	2	1.05	0.95	;
	136	2	242.579	24.258	0	0	1	1	0	63	2	1.05	0.95	;
	137	2	135.888	13.589	0	0	1	1	0	63	2	1.05	0.95	;
	138	2	137.598	13.760	0	0	1	1	0	63	2	1.05	0.95	;
	139	2	169.328	16.933	0	0	1	1	0	63	2	1.05	0.95	;
	140	2	93.317	9.332	0	0	1	1	0	63	2	1.05	0.95	;
	141	2	122.286	12.229	0	0	1	1	0	63	2	1.05	0.95	;
	142	2	147.930	14.793	0	0	1	1	0	63	2	1.05	0.95	;
	143	1	48.568	3.967	0	0	1	1	0	63	2	1.05	0.95	;
	144	2	73.556	7.356	0	0	1	1	0	63	2	1.05	0.95	;
	145	2	213.805	21.380	0	0	1	1	0	63	2	1.05	0.95	;
	146	2	15.480	1.548	0	0	1	1	0	63	2	1.05	0.95	;
	147	2	80.502	8.050	0	0	1	1	0	63	2	1.05	0.95	;
	148	1	0.000	0.000	0	0	1	1	0	63	2	1.05	0.95	;
	149	2	153.632	15.363	0	0	1	1	0	63	2	1.05	0.95	;
	150	2	87.107	8.711	0	0	1	1	0	63	2	1.05	0.95	;
	151	2	208.967	20.897	0	0	1	1	0	63	2	1.05	0.95	;
	152	2	93.823	9.382	0	0	1	1	0	63	2	1.05	0.95	;
	153	2	10.140	1.014	0	0	1	1	0	63	2	1.05	0.95	;
	154	2	97.181	9.718	0	0	1	1	0	63	2	1.05	0.95	;
	155	2	54.110	5.411	0	0	1	1	0	63	2	1.05	0.95	;
	156	2	18.858	1.886	0	0	1	1	0	63	2	1.05	0.95	;
	157	2	92.122	9.212	0	0	1	1	0	63	2	1.05	0.95	;
	158	2	98.434	9.843	0	0	1	1	0	63	2	1.05	0.95	;
	159	2	91.950	9.195	0	0	1	1	0	63	2	1.05	0.95	;
	160	2	93.571	9.357	0	0	1	1	0	63	2	1.05	0.95	;
	161	2	20.821	2.082	0	0	1	1	0	63	2	1.05	0.95	;
	162	2	71.521	7.152	0	0	1	1	0	63	2	1.05	0.95	;
	163	2	7.322	0.732	0	0	1	1	0	63	2	1.05	0.95	;
	164	2	32.921	3.292	0	0	1	1	0	63	2	1.05	0.95	;
	165	2	41.619	4.162	0	0	1	1	0	63	2	1.05	0.95	;
	166	2	131.410	13.141	0	0	1	1	0	63	2	1.05	0.95	;
	167	2	13.433	1.343	0	0	1	1	0	63	2	1.05	0.95	;
	168	2	158.737	15.874	0	0	1	1	0	63	2	1.05	0.95	;
	169	2	28.618	2.862	0	0	1	1	0	63	2	1.05	0.95	;
	170	2	31.548	3.155	0	0	1	1	0	63	2	1.05	0.95	;
	171	2	64.265	6.426	0	0	1	1	0	63	2	1.05	0.95	;
	172	2	29.200	2.920	0	0	1	1	0	63	2	1.05	0.95	;
	173	2	0.000	0.000	0	0	1	1	0	150	2	1.05	0.95	;
	174	2	0.000	0.000	0	0	1	1	0	150	2	1.05	0.95	;
	175	2	0.000	0.000	0	0	1	1	0	150	2	1.05	0.95	;
	176	2	0.000	0.000	0	0	1	1	0	150	2	1.05	0.95	;
	177	2	0.000	0.000	0	0	1	1	0	150	2	1.05	0.95	;
	178	2	0.000	0.000	0	0	1	1	0	150	2	1.05	0.95	;
	179	2	0.000	0.000	0	0	1	1	0	150	2	1.05	0.95	;
	180	1	0.000	0.000	0	0	1	1	0	150	2	1.05	0.95	;
	181	2	0.000	0.000	0	0	1	1	0	150	2	1.05	0.95	;
	182	2	0.000	0.000	0	0	1	1	0	150	2	1.05	0.95	;
	183	2	0.000	0.000	0	0	1	1	0	150	2	1.05	0.95	;
	184	1	0.000	0.000	0	0	1	1	0	150	2	1.05	0.95	;
	185	1	0.000	0.000	0	0	1	1	0	150	2	1.05	0.95	;
	186	1	0.000	0.000	0	0	1	1	0	150	2	1.05	0.95	;
	187	2	0.000	0.000	0	0	1	1	0	220	2	1.05	0.95	;
	188	2	0.000	0.000	0	0	1	1	0	220	2	1.05	0.95	;
	189	2	0.000	0.000	0	0	1	1	0	220	2	1.05	0.95	;
	190	1	0.000	0.000	0	0	1	1	0	220	2	1.05	0.95	;
	191	2	0.000	0.000	0	0	1	1	0	220	2	1.05	0.95	;
	192	2	0.000	0.000	0	0	1	1	0	220	2	1.05	0.95	;
	193	1	0.000	0.000	0	0	1	1	0	220	2	1.05	0.95	;
	194	2	0.000	0.000	0	0	1	1	0	220	2	1.05	0.95	;
	195	2	0.000	0.000	0	0	1	1	0	220	2	1.05	0.95	;
	196	2	0.000	0.000	0	0	1	1	0	220	2	1.05	0.95	;
	197	1	0.000	0.000	0	0	1	1	0	220	2	1.05	0.95	;
	198	2	0.000	0.000	0	0	1	1	0	220	2	1.05	0.95	;
	199	1	0.000	0.000	0	0	1	1	0	220	2	1.05	0.95	;
	200	2	0.000	0.000	0	0	1	1	0	220	2	1.05	0.95	;
...
];

%% generator data
%	bus	Pg	Qg	Qmax	Qmin	Vg	mBase	status	Pmax	Pmin	Pc1	Pc2	Qc1min	Qc1max	Qc2min	Qc2max	ramp_agc	ramp_10	ramp_30	ramp_q	apf
mpc.gen = [
	1	253.567	-38.483	9999.000	-9999.000	1.0431	100.00	1	9999.000	-9999.000	0	0	0	0	0	0	0	0	0	0	0	;
	2	23.128	-20.796	9999.000	-9999.000	1.0480	100.00	1	9999.000	-9999.000	0	0	0	0	0	0	0	0	0	0	0	;
	3	7.069	-22.469	9999.000	-9999.000	1.0428	100.00	1	9999.000	-9999.000	0	0	0	0	0	0	0	0	0	0	0	;
	4	10.859	-40.019	9999.000	-9999.000	1.0431	100.00	1	9999.000	-9999.000	0	0	0	0	0	0	0	0	0	0	0	;
	5	61.065	-8.664	9999.000	-9999.000	1.0411	100.00	1	9999.000	-9999.000	0	0	0	0	0	0	0	0	0	0	0	;
	6	39.311	-4.968	9999.000	-9999.000	1.0408	100.00	1	9999.000	-9999.000	0	0	0	0	0	0	0	0	0	0	0	;
	7	0.000	36.618	9999.000	-9999.000	1.0372	100.00	1	9999.000	-9999.000	0	0	0	0	0	0	0	0	0	0	0	;
	22	0.000	0.000	17.121	-17.121	1.0307	46.10	1	42.803	0.000	0	0	0	0	0	0	0	0	0	0	0	;
	22	0.000	0.000	23.063	-23.063	1.0307	62.10	1	57.658	0.000	0	0	0	0	0	0	0	0	0	0	0	;
	30	31.000	1.512	15.500	-12.400	1.0349	34.66	1	31.000	15.500	0	0	0	0	0	0	0	0	0	0	0	;
	30	31.000	1.512	15.500	-12.400	1.0349	34.66	1	31.000	15.500	0	0	0	0	0	0	0	0	0	0	0	;
	61	49.000	0.100	30.000	-24.000	1.0297	67.08	1	60.000	30.000	0	0	0	0	0	0	0	0	0	0	0	;
	61	49.000	0.100	30.000	-24.000	1.0297	67.08	1	60.000	30.000	0	0	0	0	0	0	0	0	0	0	0	;
	61	0.000	0.000	30.000	-24.000	1.0297	67.08	0	60.000	30.000	0	0	0	0	0	0	0	0	0	0	0	;
	108	0.274	-0.245	5.385	-5.385	1.0161	14.50	1	13.463	0.000	0	0	0	0	0	0	0	0	0	0	0	;
	108	4.996	-0.406	8.913	-8.913	1.0161	24.00	1	22.283	0.000	0	0	0	0	0	0	0	0	0	0	0	;
	109	15.500	2.616	7.750	-6.200	1.0214	17.33	1	15.500	7.750	0	0	0	0	0	0	0	0	0	0	0	;
	109	30.000	5.062	15.000	-12.000	1.0214	33.54	1	30.000	15.000	0	0	0	0	0	0	0	0	0	0	0	;
	109	28.561	6.866	23.546	-23.546	1.0214	63.40	1	58.865	0.000	0	0	0	0	0	0	0	0	0	0	0	;
	109	0.774	4.440	15.227	-15.227	1.0214	41.00	1	38.070	0.000	0	0	0	0	0	0	0	0	0	0	0	;
	109	3.185	0.000	0.000	0.000	1.0214	15.30	1	15.300	0.000	0	0	0	0	0	0	0	0	0	0	0	;
	109	0.000	0.000	1.374	-1.374	1.0214	3.70	1	3.440	0.000	0	0	0	0	0	0	0	0	0	0	0	;
	110	7.838	-2.567	6.462	-6.462	1.0231	17.40	1	16.156	0.000	0	0	0	0	0	0	0	0	0	0	0	;
	111	2.568	1.588	2.117	-2.117	1.0239	5.70	1	5.292	0.000	0	0	0	0	0	0	0	0	0	0	0	;
	112	93.881	18.129	77.398	-77.398	1.0250	208.40	1	193.495	0.000	0	0	0	0	0	0	0	0	0	0	0	;
	112	0.000	0.000	9.693	-9.693	1.0250	26.10	1	24.233	0.000	0	0	0	0	0	0	0	0	0	0	0	;
	113	0.270	-0.167	0.223	-0.223	1.0298	0.60	1	0.557	0.000	0	0	0	0	0	0	0	0	0	0	0	;
	113	1.312	0.000	0.000	0.000	1.0298	6.30	1	6.300	0.000	0	0	0	0	0	0	0	0	0	0	0	;
	113	0.000	0.000	16.935	-16.935	1.0298	45.60	1	42.339	0.000	0	0	0	0	0	0	0	0	0	0	0	;
	114	12.568	2.439	10.362	-10.362	1.0274	27.90	1	25.905	0.000	0	0	0	0	0	0	0	0	0	0	0	;
	114	2.401	11.122	47.241	-47.241	1.0274	127.20	1	118.102	0.000	0	0	0	0	0	0	0	0	0	0	0	;
	114	2.727	0.000	0.000	0.000	1.0274	13.10	1	13.100	0.000	0	0	0	0	0	0	0	0	0	0	0	;
	114	5.413	2.273	9.656	-9.656	1.0274	26.00	1	24.140	0.000	0	0	0	0	0	0	0	0	0	0	0	;
	114	0.000	0.000	1.523	-1.523	1.0274	4.10	1	3.807	0.000	0	0	0	0	0	0	0	0	0	0	0	;
	115	15.000	0.990	9.000	-7.200	1.0114	20.12	1	18.000	-18.000	0	0	0	0	0	0	0	0	0	0	0	;
	115	15.000	0.990	9.000	-7.200	1.0114	20.12	1	18.000	-18.000	0	0	0	0	0	0	0	0	0	0	0	;
	115	0.450	0.014	0.371	-0.371	1.0114	1.00	1	0.928	0.000	0	0	0	0	0	0	0	0	0	0	0	;
	115	0.157	0.120	3.083	-3.083	1.0114	8.30	1	7.706	0.000	0	0	0	0	0	0	0	0	0	0	0	;
	115	2.040	0.000	0.000	0.000	1.0114	9.80	1	9.800	0.000	0	0	0	0	0	0	0	0	0	0	0	;
	116	30.903	1.948	25.477	-25.477	1.0206	68.60	1	63.694	0.000	0	0	0	0	0	0	0	0	0	0	0	;
	116	0.291	0.000	0.000	0.000	1.0206	1.40	1	1.400	0.000	0	0	0	0	0	0	0	0	0	0	0	;
	116	0.000	0.000	0.743	-0.743	1.0206	2.00	1	1.857	0.000	0	0	0	0	0	0	0	0	0	0	0	;
	117	0.000	0.000	5.979	-5.979	1.0157	16.10	1	14.948	0.000	0	0	0	0	0	0	0	0	0	0	0	;
	118	17.434	3.334	14.373	-14.373	1.0234	38.70	1	35.932	0.000	0	0	0	0	0	0	0	0	0	0	0	;
	118	0.025	0.112	0.483	-0.483	1.0234	1.30	1	1.207	0.000	0	0	0	0	0	0	0	0	0	0	0	;
	118	5.017	0.000	0.000	0.000	1.0234	24.10	1	24.100	0.000	0	0	0	0	0	0	0	0	0	0	0	;
	118	16.342	6.763	29.154	-29.154	1.0234	78.50	1	72.885	0.000	0	0	0	0	0	0	0	0	0	0	0	;
	119	2.343	-0.451	1.931	-1.931	1.0348	5.20	1	4.828	0.000	0	0	0	0	0	0	0	0	0	0	0	;
	119	0.687	-3.155	13.519	-13.519	1.0348	36.40	1	33.797	0.000	0	0	0	0	0	0	0	0	0	0	0	;
	119	0.000	0.000	0.743	-0.743	1.0348	2.00	1	1.857	0.000	0	0	0	0	0	0	0	0	0	0	0	;
	120	12.388	2.684	10.213	-10.213	1.0239	27.50	1	25.533	0.000	0	0	0	0	0	0	0	0	0	0	0	;
	120	0.829	4.284	16.304	-16.304	1.0239	43.90	1	40.760	0.000	0	0	0	0	0	0	0	0	0	0	0	;
	120	4.080	0.000	0.000	0.000	1.0239	19.60	1	19.600	0.000	0	0	0	0	0	0	0	0	0	0	0	;
	120	0.000	0.000	1.634	-1.634	1.0239	4.40	1	4.085	0.000	0	0	0	0	0	0	0	0	0	0	0	;
	121	0.123	-0.053	2.414	-2.414	1.0199	6.50	1	6.035	0.000	0	0	0	0	0	0	0	0	0	0	0	;
	121	0.125	0.000	0.000	0.000	1.0199	0.60	1	0.600	0.000	0	0	0	0	0	0	0	0	0	0	0	;
	121	0.000	0.000	7.428	-7.428	1.0199	20.00	1	18.569	0.000	0	0	0	0	0	0	0	0	0	0	0	;
	122	9.595	0.498	7.911	-7.911	1.0340	21.30	1	19.777	0.000	0	0	0	0	0	0	0	0	0	0	0	;
	122	2.708	3.353	53.295	-53.295	1.0340	143.50	1	133.236	0.000	0	0	0	0	0	0	0	0	0	0	0	;
	122	0.000	0.000	0.037	-0.037	1.0340	0.10	1	0.093	0.000	0	0	0	0	0	0	0	0	0	0	0	;
	123	20.001	6.155	16.490	-16.490	1.0269	44.40	1	41.224	0.000	0	0	0	0	0	0	0	0	0	0	0	;
	123	0.000	0.000	7.056	-7.056	1.0269	19.00	1	17.641	0.000	0	0	0	0	0	0	0	0	0	0	0	;
	124	0.045	0.016	0.037	-0.037	1.0298	0.10	1	0.093	0.000	0	0	0	0	0	0	0	0	0	0	0	;
	124	4.122	35.627	81.112	-81.112	1.0298	218.40	1	202.779	0.000	0	0	0	0	0	0	0	0	0	0	0	;
	124	0.187	0.000	0.000	0.000	1.0298	0.90	1	0.900	0.000	0	0	0	0	0	0	0	0	0	0	0	;
	125	0.323	-1.495	6.351	-6.351	1.0229	17.10	1	15.877	0.000	0	0	0	0	0	0	0	0	0	0	0	;
	126	16.172	0.712	13.333	-13.333	1.0309	35.90	1	33.332	0.000	0	0	0	0	0	0	0	0	0	0	0	;
	126	0.383	0.403	7.539	-7.539	1.0309	20.30	1	18.848	0.000	0	0	0	0	0	0	0	0	0	0	0	;
	126	0.000	0.000	6.908	-6.908	1.0309	18.60	1	17.270	0.000	0	0	0	0	0	0	0	0	0	0	0	;
	127	0.405	0.002	0.334	-0.334	1.0219	0.90	1	0.836	0.000	0	0	0	0	0	0	0	0	0	0	0	;
	127	6.395	0.867	125.827	-125.827	1.0219	338.80	1	314.568	0.000	0	0	0	0	0	0	0	0	0	0	0	;
	127	9.472	0.000	0.000	0.000	1.0219	45.50	1	45.500	0.000	0	0	0	0	0	0	0	0	0	0	0	;
	127	6.204	0.076	11.067	-11.067	1.0219	29.80	1	27.669	0.000	0	0	0	0	0	0	0	0	0	0	0	;
	128	72.798	32.402	60.017	-60.017	1.0370	161.60	1	150.042	0.000	0	0	0	0	0	0	0	0	0	0	0	;
	128	0.042	0.441	0.817	-0.817	1.0370	2.20	1	2.043	0.000	0	0	0	0	0	0	0	0	0	0	0	;
	128	9.368	0.000	0.000	0.000	1.0370	45.00	1	45.000	0.000	0	0	0	0	0	0	0	0	0	0	0	;
	128	0.000	0.000	0.966	-0.966	1.0370	2.60	1	2.414	0.000	0	0	0	0	0	0	0	0	0	0	0	;
	129	63.000	15.504	37.500	-30.000	1.0328	83.85	1	75.000	37.500	0	0	0	0	0	0	0	0	0	0	0	;
	129	32.119	9.957	26.480	-26.480	1.0328	71.30	1	66.200	0.000	0	0	0	0	0	0	0	0	0	0	0	;
	129	0.649	4.804	12.776	-12.776	1.0328	34.40	1	31.940	0.000	0	0	0	0	0	0	0	0	0	0	0	;
	129	3.726	0.000	0.000	0.000	1.0328	17.90	1	17.900	0.000	0	0	0	0	0	0	0	0	0	0	0	;
	130	3.874	2.395	3.194	-3.194	1.0209	8.60	1	7.985	0.000	0	0	0	0	0	0	0	0	0	0	0	;
	131	38.021	-5.229	31.345	-31.345	1.0276	84.40	1	78.363	0.000	0	0	0	0	0	0	0	0	0	0	0	;
	131	1.110	-3.643	21.838	-21.838	1.0276	58.80	1	54.594	0.000	0	0	0	0	0	0	0	0	0	0	0	;
	131	0.000	0.000	6.796	-6.796	1.0276	18.30	1	16.991	0.000	0	0	0	0	0	0	0	0	0	0	0	;
	132	14.956	-0.397	12.330	-12.330	1.0122	33.20	1	30.825	0.000	0	0	0	0	0	0	0	0	0	0	0	;
	132	0.406	-0.257	7.985	-7.985	1.0122	21.50	1	19.962	0.000	0	0	0	0	0	0	0	0	0	0	0	;
	133	61.761	7.114	50.918	-50.918	1.0067	137.10	1	127.294	0.000	0	0	0	0	0	0	0	0	0	0	0	;
	133	2.373	6.523	46.684	-46.684	1.0067	125.70	1	116.710	0.000	0	0	0	0	0	0	0	0	0	0	0	;
	133	3.393	0.000	0.000	0.000	1.0067	16.30	1	16.300	0.000	0	0	0	0	0	0	0	0	0	0	0	;
	293	0.000	0.000	0.000	0.000	1.0122	1.00	1	1.000	0.000	0	0	0	0	0	0	0	0	0	0	0	;
	134	83.610	13.059	68.930	-68.930	1.0220	185.60	1	172.325	0.000	0	0	0	0	0	0	0	0	0	0	0	;
	134	0.000	0.000	0.446	-0.446	1.0220	1.20	1	1.114	0.000	0	0	0	0	0	0	0	0	0	0	0	;
	136	2.433	-1.504	2.006	-2.006	1.0281	5.40	1	5.014	0.000	0	0	0	0	0	0	0	0	0	0	0	;
	136	0.000	0.000	1.486	-1.486	1.0281	4.00	1	3.714	0.000	0	0	0	0	0	0	0	0	0	0	0	;
	137	12.704	4.011	10.473	-10.473	1.0270	28.20	1	26.183	0.000	0	0	0	0	0	0	0	0	0	0	0	;
	137	0.815	6.144	16.044	-16.044	1.0270	43.20	1	40.110	0.000	0	0	0	0	0	0	0	0	0	0	0	;
	137	0.937	0.000	0.000	0.000	1.0270	4.50	1	4.500	0.000	0	0	0	0	0	0	0	0	0	0	0	;
	138	2.433	-1.504	2.006	-2.006	1.0238	5.40	1	5.014	0.000	0	0	0	0	0	0	0	0	0	0	0	;
	138	1.291	0.000	0.000	0.000	1.0238	6.20	1	6.200	0.000	0	0	0	0	0	0	0	0	0	0	0	;
	138	0.000	0.000	2.154	-2.154	1.0238	5.80	1	5.385	0.000	0	0	0	0	0	0	0	0	0	0	0	;
	139	3.919	0.914	3.231	-3.231	1.0225	8.70	1	8.078	0.000	0	0	0	0	0	0	0	0	0	0	0	;
	140	1.353	0.000	0.000	0.000	1.0201	6.50	1	6.500	0.000	0	0	0	0	0	0	0	0	0	0	0	;
	140	0.000	0.000	37.065	-37.065	1.0201	99.80	1	92.662	0.000	0	0	0	0	0	0	0	0	0	0	0	;
	141	5.496	0.244	4.531	-4.531	1.0190	12.20	1	11.327	0.000	0	0	0	0	0	0	0	0	0	0	0	;
	142	8.424	2.056	6.945	-6.945	1.0256	18.70	1	17.362	0.000	0	0	0	0	0	0	0	0	0	0	0	;
	142	2.116	12.325	41.633	-41.633	1.0256	112.10	1	104.082	0.000	0	0	0	0	0	0	0	0	0	0	0	;
	142	5.663	0.000	0.000	0.000	1.0256	27.20	1	27.200	0.000	0	0	0	0	0	0	0	0	0	0	0	;
	142	0.000	0.000	0.037	-0.037	1.0256	0.10	1	0.093	0.000	0	0	0	0	0	0	0	0	0	0	0	;
	144	0.450	0.014	0.371	-0.371	1.0212	1.00	1	0.928	0.000	0	0	0	0	0	0	0	0	0	0	0	;
	144	2.078	1.591	40.890	-40.890	1.0212	110.10	1	102.225	0.000	0	0	0	0	0	0	0	0	0	0	0	;
	145	181.635	8.248	149.745	-149.745	1.0178	403.20	1	374.362	0.000	0	0	0	0	0	0	0	0	0	0	0	;
	145	0.157	0.170	3.083	-3.083	1.0178	8.30	1	7.706	0.000	0	0	0	0	0	0	0	0	0	0	0	;
	146	0.000	0.000	5.274	-5.274	1.0156	14.20	1	13.184	0.000	0	0	0	0	0	0	0	0	0	0	0	;
	147	2.207	0.099	1.820	-1.820	1.0254	4.90	1	4.549	0.000	0	0	0	0	0	0	0	0	0	0	0	;
	147	0.000	0.000	1.486	-1.486	1.0254	4.00	1	3.714	0.000	0	0	0	0	0	0	0	0	0	0	0	;
	149	0.496	0.306	0.409	-0.409	1.0210	1.10	1	1.021	0.000	0	0	0	0	0	0	0	0	0	0	0	;
	149	0.000	0.000	4.828	-4.828	1.0210	13.00	1	12.070	0.000	0	0	0	0	0	0	0	0	0	0	0	;
	150	0.000	0.000	4.000	-3.200	1.0236	8.94	0	8.000	4.000	0	0	0	0	0	0	0	0	0	0	0	;
	150	6.750	0.825	4.400	-3.520	1.0236	9.84	1	8.800	4.400	0	0	0	0	0	0	0	0	0	0	0	;
	150	6.750	0.825	4.400	-3.520	1.0236	9.84	1	8.800	4.400	0	0	0	0	0	0	0	0	0	0	0	;
	150	0.000	0.000	4.400	-3.520	1.0236	9.84	1	8.800	4.400	0	0	0	0	0	0	0	0	0	0	0	;
	150	0.000	0.000	4.400	-3.520	1.0236	9.84	1	8.800	4.400	0	0	0	0	0	0	0	0	0	0	0	;
	150	0.000	0.000	4.000	-3.200	1.0236	8.94	1	8.000	4.000	0	0	0	0	0	0	0	0	0	0	0	;
	150	0.000	0.000	12.500	-10.000	1.0236	27.95	1	25.000	12.500	0	0	0	0	0	0	0	0	0	0	0	;
	150	23.695	2.441	19.535	-19.535	1.0236	52.60	1	48.838	0.000	0	0	0	0	0	0	0	0	0	0	0	;
	150	1.157	2.845	22.766	-22.766	1.0236	61.30	1	56.916	0.000	0	0	0	0	0	0	0	0	0	0	0	;
	150	1.083	0.000	0.000	0.000	1.0236	5.20	1	5.200	0.000	0	0	0	0	0	0	0	0	0	0	0	;
	150	0.000	0.000	8.913	-8.913	1.0236	24.00	1	22.283	0.000	0	0	0	0	0	0	0	0	0	0	0	;
	151	12.163	0.562	10.028	-10.028	1.0272	27.00	1	25.069	0.000	0	0	0	0	0	0	0	0	0	0	0	;
	151	2.228	0.000	0.000	0.000	1.0272	10.70	1	10.700	0.000	0	0	0	0	0	0	0	0	0	0	0	;
	152	11.487	0.871	9.470	-9.470	1.0205	25.50	1	23.676	0.000	0	0	0	0	0	0	0	0	0	0	0	;
	152	1.831	3.314	36.025	-36.025	1.0205	97.00	1	90.062	0.000	0	0	0	0	0	0	0	0	0	0	0	;
	152	5.496	0.000	0.000	0.000	1.0205	26.40	1	26.400	0.000	0	0	0	0	0	0	0	0	0	0	0	;
	152	6.662	1.093	11.885	-11.885	1.0205	32.00	1	29.711	0.000	0	0	0	0	0	0	0	0	0	0	0	;
	152	0.000	0.000	0.037	-0.037	1.0205	0.10	1	0.093	0.000	0	0	0	0	0	0	0	0	0	0	0	;
	153	0.081	-1.198	1.597	-1.597	1.0260	4.30	1	3.992	0.000	0	0	0	0	0	0	0	0	0	0	0	;
	153	0.000	0.000	0.037	-0.037	1.0260	0.10	1	0.093	0.000	0	0	0	0	0	0	0	0	0	0	0	;
	154	1.847	1.142	1.523	-1.523	1.0176	4.10	1	3.807	0.000	0	0	0	0	0	0	0	0	0	0	0	;
	154	0.000	0.000	0.631	-0.631	1.0176	1.70	1	1.578	0.000	0	0	0	0	0	0	0	0	0	0	0	;
	155	0.000	0.000	20.000	-16.000	1.0233	44.72	0	40.000	20.000	0	0	0	0	0	0	0	0	0	0	0	;
	155	0.135	0.011	0.111	-0.111	1.0233	0.30	1	0.278	0.000	0	0	0	0	0	0	0	0	0	0	0	;
	155	4.872	9.107	95.856	-95.856	1.0233	258.10	1	239.640	0.000	0	0	0	0	0	0	0	0	0	0	0	;
	155	4.122	0.000	0.000	0.000	1.0233	19.80	1	19.800	0.000	0	0	0	0	0	0	0	0	0	0	0	;
	156	4.356	-3.786	85.717	-85.717	1.0195	230.80	1	214.292	0.000	0	0	0	0	0	0	0	0	0	0	0	;
	156	1.936	0.000	0.000	0.000	1.0195	9.30	1	9.300	0.000	0	0	0	0	0	0	0	0	0	0	0	;
	157	8.019	-1.272	6.611	-6.611	1.0183	17.80	1	16.527	0.000	0	0	0	0	0	0	0	0	0	0	0	;
	158	1.261	0.265	1.040	-1.040	1.0270	2.80	1	2.600	0.000	0	0	0	0	0	0	0	0	0	0	0	;
	158	1.182	5.927	23.249	-23.249	1.0270	62.60	1	58.123	0.000	0	0	0	0	0	0	0	0	0	0	0	;
	159	3.198	1.569	2.637	-2.637	1.0289	7.10	1	6.592	0.000	0	0	0	0	0	0	0	0	0	0	0	;
	159	3.163	37.032	62.245	-62.245	1.0289	167.60	1	155.613	0.000	0	0	0	0	0	0	0	0	0	0	0	;
	159	0.479	0.000	0.000	0.000	1.0289	2.30	1	2.300	0.000	0	0	0	0	0	0	0	0	0	0	0	;
	159	0.000	0.000	1.634	-1.634	1.0289	4.40	1	4.085	0.000	0	0	0	0	0	0	0	0	0	0	0	;
	160	11.848	1.158	9.768	-9.768	1.0282	26.30	1	24.419	0.000	0	0	0	0	0	0	0	0	0	0	0	;
	160	3.639	8.492	71.604	-71.604	1.0282	192.80	1	179.010	0.000	0	0	0	0	0	0	0	0	0	0	0	;
	160	11.429	0.000	0.000	0.000	1.0282	54.90	1	54.900	0.000	0	0	0	0	0	0	0	0	0	0	0	;
	161	4.220	8.822	83.043	-83.043	1.0185	223.60	1	207.607	0.000	0	0	0	0	0	0	0	0	0	0	0	;
	162	26.443	8.755	21.801	-21.801	1.0210	58.70	1	54.502	0.000	0	0	0	0	0	0	0	0	0	0	0	;
	162	0.798	6.309	15.710	-15.710	1.0210	42.30	1	39.275	0.000	0	0	0	0	0	0	0	0	0	0	0	;
	162	0.583	0.000	0.000	0.000	1.0210	2.80	1	2.800	0.000	0	0	0	0	0	0	0	0	0	0	0	;
	163	4.073	-2.634	80.146	-80.146	1.0227	215.80	1	200.365	0.000	0	0	0	0	0	0	0	0	0	0	0	;
	163	1.395	0.000	0.000	0.000	1.0227	6.70	1	6.700	0.000	0	0	0	0	0	0	0	0	0	0	0	;
	164	2.727	0.000	0.000	0.000	1.0276	13.10	1	13.100	0.000	0	0	0	0	0	0	0	0	0	0	0	;
	164	0.000	0.000	17.084	-17.084	1.0276	46.00	1	42.710	0.000	0	0	0	0	0	0	0	0	0	0	0	;
	165	1.408	-2.089	27.706	-27.706	1.0098	74.60	1	69.264	0.000	0	0	0	0	0	0	0	0	0	0	0	;
	165	4.309	0.000	0.000	0.000	1.0098	20.70	1	20.700	0.000	0	0	0	0	0	0	0	0	0	0	0	;
	166	8.604	0.762	7.094	-7.094	1.0210	19.10	1	17.734	0.000	0	0	0	0	0	0	0	0	0	0	0	;
	166	4.422	9.352	87.017	-87.017	1.0210	234.30	1	217.542	0.000	0	0	0	0	0	0	0	0	0	0	0	;
	166	0.000	0.000	0.074	-0.074	1.0210	0.20	1	0.186	0.000	0	0	0	0	0	0	0	0	0	0	0	;
	167	0.405	-0.011	0.334	-0.334	1.0097	0.90	1	0.836	0.000	0	0	0	0	0	0	0	0	0	0	0	;
	167	2.197	-1.401	43.230	-43.230	1.0097	116.40	1	108.075	0.000	0	0	0	0	0	0	0	0	0	0	0	;
	167	7.682	0.000	0.000	0.000	1.0097	36.90	1	36.900	0.000	0	0	0	0	0	0	0	0	0	0	0	;
	168	2.072	-1.281	1.708	-1.708	1.0300	4.60	1	4.271	0.000	0	0	0	0	0	0	0	0	0	0	0	;
	169	2.880	33.446	56.674	-56.674	1.0272	152.60	1	141.686	0.000	0	0	0	0	0	0	0	0	0	0	0	;
	169	0.000	0.000	2.451	-2.451	1.0272	6.60	1	6.128	0.000	0	0	0	0	0	0	0	0	0	0	0	;
	170	1.759	13.806	34.614	-34.614	1.0201	93.20	1	86.534	0.000	0	0	0	0	0	0	0	0	0	0	0	;
	170	0.749	0.000	0.000	0.000	1.0201	3.60	1	3.600	0.000	0	0	0	0	0	0	0	0	0	0	0	;
	171	0.125	0.000	0.000	0.000	1.0161	0.60	1	0.600	0.000	0	0	0	0	0	0	0	0	0	0	0	;
	171	0.000	0.000	4.457	-4.457	1.0161	12.00	1	11.142	0.000	0	0	0	0	0	0	0	0	0	0	0	;
	172	1.012	-2.350	19.907	-19.907	1.0090	53.60	1	49.766	0.000	0	0	0	0	0	0	0	0	0	0	0	;
	172	6.870	0.000	0.000	0.000	1.0090	33.00	1	33.000	0.000	0	0	0	0	0	0	0	0	0	0	0	;
	173	30.000	0.430	15.000	-12.000	1.0379	33.54	1	30.000	15.000	0	0	0	0	0	0	0	0	0	0	0	;
	173	30.000	0.430	15.000	-12.000	1.0379	33.54	1	30.000	15.000	0	0	0	0	0	0	0	0	0	0	0	;
	173	30.000	0.430	15.000	-12.000	1.0379	33.54	1	30.000	15.000	0	0	0	0	0	0	0	0	0	0	0	;
	173	54.000	0.774	27.000	-21.600	1.0379	60.37	1	54.000	27.000	0	0	0	0	0	0	0	0	0	0	0	;
	174	0.000	0.000	10.500	-8.400	1.0368	23.48	0	21.000	10.500	0	0	0	0	0	0	0	0	0	0	0	;
	174	0.000	0.000	10.500	-8.400	1.0368	23.48	0	21.000	10.500	0	0	0	0	0	0	0	0	0	0	0	;
	175	0.000	0.000	27.000	-21.600	1.0081	60.37	0	54.000	27.000	0	0	0	0	0	0	0	0	0	0	0	;
	175	0.000	0.000	27.000	-21.600	1.0081	60.37	0	54.000	27.000	0	0	0	0	0	0	0	0	0	0	0	;
	176	0.000	0.000	11.000	-8.800	1.0081	24.60	0	22.000	11.000	0	0	0	0	0	0	0	0	0	0	0	;
	176	0.000	0.000	11.000	-8.800	1.0081	24.60	0	22.000	11.000	0	0	0	0	0	0	0	0	0	0	0	;
	177	31.000	-0.265	17.000	-13.600	1.0396	38.01	1	34.000	-34.000	0	0	0	0	0	0	0	0	0	0	0	;
	177	0.000	0.000	17.000	-13.600	1.0396	38.01	0	34.000	-34.000	0	0	0	0	0	0	0	0	0	0	0	;
	178	28.000	0.473	14.500	-11.600	1.0267	32.42	1	29.000	14.500	0	0	0	0	0	0	0	0	0	0	0	;
	178	28.000	0.473	14.500	-11.600	1.0267	32.42	1	29.000	14.500	0	0	0	0	0	0	0	0	0	0	0	;
	179	0.000	0.000	31.250	-25.000	1.0349	69.88	0	62.500	31.250	0	0	0	0	0	0	0	0	0	0	0	;
	179	0.000	0.000	31.250	-25.000	1.0349	69.88	0	62.500	-62.500	0	0	0	0	0	0	0	0	0	0	0	;
	181	41.000	2.040	22.000	-17.600	1.0359	49.19	1	44.000	22.000	0	0	0	0	0	0	0	0	0	0	0	;
	181	41.000	2.040	22.000	-17.600	1.0359	49.19	1	44.000	22.000	0	0	0	0	0	0	0	0	0	0	0	;
	181	41.000	2.040	22.000	-17.600	1.0359	49.19	1	44.000	22.000	0	0	0	0	0	0	0	0	0	0	0	;
...
];

%% gen tags 
% Generation Technology Type:
%  CWS (Connection with Spain),
%  FOG (Fossil Gas),
%  FHC (Fossil Hard Coal),
%  HWR (Hydro Water Reservoir),
%  HPS (Hydro Pumped Storage),
%  HRP (Hydro Run-of-river and poundage),
%  SH1 (Small Hydro - P ≤ 10 MW),
%  SH3 (Small Hydro - 10 MW < P ≤ 30 MW),
%  PVP (Photovoltaic power plant),
%  WON (Wind onshore),
%  WOF (Wind offshore),
%  MAR (Marine),
%  OTH (Other thermal, such as geothermal, biomass, biogas, Municipal solid waste and CHP renewable and non-renewable)
%	genType
mpc.gen_tags = {
	'CWS';	'CWS';	'CWS';	'CWS';	'CWS';	'CWS';	'CWS';	'PVP';	'PVP';	'HWR';	'HWR';	'HRP';	'HRP';	'HRP';	'WON';	'SH3';	'HRP';	'HRP';	'OTH';	'WON';	'SH1';	'PVP';	'OTH';	'OTH';	'OTH';	'PVP';	'OTH';	'SH1';	'PVP';	'OTH';	'WON';	'SH1';	'SH3';	'PVP';	'HPS';	'HPS';	'OTH';	'WON';	'SH1';	'OTH';	'SH1';	'PVP';	'PVP';	'OTH';	'WON';	'SH1';	'SH3';	'OTH';	'WON';	'PVP';	'OTH';	'WON';	'SH1';	'PVP';	'WON';	'SH1';	'PVP';	'OTH';	'WON';	'PVP';	'OTH';	'PVP';	'OTH';	'WON';	'SH1';	'WON';	'OTH';	'WON';	'PVP';	'OTH';	'WON';	'SH1';	'SH3';	'OTH';	'WON';	'SH1';	'PVP';	'HWR';	'OTH';	'WON';	'SH1';	'OTH';	'OTH';	'WON';	'PVP';	'OTH';	'WON';	'OTH';	'WON';	'SH1';	'MAR';	'OTH';	'PVP';	'OTH';	'PVP';	'OTH';	'WON';	'SH1';	'OTH';	'SH1';	'PVP';	'OTH';	'SH1';	'PVP';	'OTH';	'OTH';	'WON';	'SH1';	'PVP';	'OTH';	'WON';	'OTH';	'WON';	'PVP';	'OTH';	'PVP';	'OTH';	'PVP';	'HWR';	'HRP';	'HRP';	'HRP';	'HRP';	'HWR';	'HWR';	'OTH';	'WON';	'SH1';	'PVP';	'OTH';	'SH1';	'OTH';	'WON';	'SH1';	'SH3';	'PVP';	'WON';	'PVP';	'OTH';	'PVP';	'HWR';	'OTH';	'WON';	'SH1';	'WON';	'SH1';	'OTH';	'OTH';	'WON';	'OTH';	'WON';	'SH1';	'PVP';	'OTH';	'WON';	'SH1';	'WON';	'OTH';	'WON';	'SH1';	'WON';	'SH1';	'SH1';	'PVP';	'WON';	'SH1';	'OTH';	'WON';	'PVP';	'OTH';	'WON';	'SH1';	'OTH';	'WON';	'PVP';	'WON';	'SH1';	'SH1';	'PVP';	'WON';	'SH1';	'HWR';	'HWR';	'HWR';	'HWR';	'HWR';	'HWR';	'HWR';	'HWR';	'HWR';	'HWR';	'HPS';	'HPS';	'HWR';	'HWR';	'HWR';	'HPS';	'HRP';	'HRP';	'HRP';	'HPS';	'HPS';	'FHC';	'HWR';	'HWR';	'HWR';	'HRP';	'HRP';	'HRP';	'HRP';	'HRP';	'HRP';	'HRP';	'HRP';	'HRP';	'HRP';	'HPS';	'HPS';	'HPS';	'HRP';	'HRP';	'HRP';	'HPS';	'HPS';	'HRP';	'HRP';	'HRP';	'HRP';	'HRP';	'HRP';	'HRP';	'HRP';	'HRP';	'FOG';	'FOG';	'FOG';	'FOG';	'HRP';	'HPS';	'HPS';	'HPS';	'HPS';	'HPS';	'HPS';	'HPS';	'HPS';	'HPS';	'HWR';	'HWR';	'FHC';	'FHC';	'FHC';	'FHC';	'FHC';	'FOG';	'FOG';	'FOG';	'FOG';	'FOG';	'FOG';	'OTH';	'WON';	'WON';	'WON';	'WON';	'OTH';	'WON';	'WON';	'WON';	'WON';	'WON';	'WON';	'WON';	'HRP';	'HRP';	'HRP';	'WOF';
};

%% branch data
% If the 'step_size', 'actTap', 'minTap', 'maxTap' and 'normalTap' fields are equal to "-1", it means that the transformer does not have tap changing capability
% If the length is equal to "0", it means that the correspondent branch represents a transformer
%	fbus	tbus	r	x	b	rateA (summer)	rateB (spring)	rateC (winter)	tap ratio	shift angle		status	angmin	angmax	step_size	actTap	minTap	maxTap	normalTap	length (km)
mpc.branch = [
	8	24	0.02945	0.09879	0.03302	91	123	130	0	0	1	-360	360	0	0	0	0	0	54.0	;
	8	176	0.02007	0.06867	0.02205	96	104	104	0	0	1	-360	360	0	0	0	0	0	36.6	;
	8	176	0.02014	0.06872	0.02229	96	104	104	0	0	1	-360	360	0	0	0	0	0	36.7	;
	9	14	0.00146	0.00787	0.00265	255	260	260	0	0	1	-360	360	0	0	0	0	0	4.3	;
	9	14	0.00146	0.00769	0.00260	255	260	260	0	0	1	-360	360	0	0	0	0	0	4.2	;
	9	14	0.00137	0.00737	0.00250	124	162	203	0	0	1	-360	360	0	0	0	0	0	4.1	;
	10	19	0.02098	0.11168	0.03801	218	248	260	0	0	1	-360	360	0	0	0	0	0	61.3	;
	10	22	0.02445	0.08166	0.02747	164	186	206	0	0	1	-360	360	0	0	0	0	0	44.5	;
	10	26	0.00777	0.04761	0.01640	260	260	260	0	0	1	-360	360	0	0	0	0	0	26.0	;
	11	14	0.02030	0.07019	0.02214	171	186	206	0	0	1	-360	360	0	0	0	0	0	36.7	;
	11	14	0.02010	0.06862	0.02204	191	204	222	0	0	1	-360	360	0	0	0	0	0	36.5	;
	12	22	0.02823	0.10553	0.04049	189	204	222	0	0	1	-360	360	0	0	0	0	0	61.6	;
	12	23	0.01953	0.08771	0.03214	195	204	222	0	0	1	-360	360	0	0	0	0	0	49.8	;
	12	29	0.01515	0.04945	0.01745	195	204	222	0	0	1	-360	360	0	0	0	0	0	27.9	;
	12	29	0.01515	0.04945	0.01745	195	204	222	0	0	1	-360	360	0	0	0	0	0	27.9	;
	12	29	0.00551	0.05765	0.03609	260	260	260	0	0	1	-360	360	0	0	0	0	0	42.8	;
	12	34	0.02334	0.12013	0.04435	255	260	260	0	0	1	-360	360	0	0	0	0	0	68.7	;
	13	14	0.00788	0.04049	0.01506	255	260	260	0	0	1	-360	360	0	0	0	0	0	23.1	;
	13	14	0.00788	0.04049	0.01506	255	260	260	0	0	1	-360	360	0	0	0	0	0	23.1	;
	13	20	0.00745	0.02441	0.00855	195	204	221	0	0	1	-360	360	0	0	0	0	0	13.6	;
	13	20	0.00745	0.02441	0.00855	195	204	221	0	0	1	-360	360	0	0	0	0	0	13.6	;
	13	180	0.00411	0.02110	0.00788	255	260	260	0	0	1	-360	360	0	0	0	0	0	12.0	;
	13	246	0.00422	0.02163	0.00811	260	260	260	0	0	1	-360	360	0	0	0	0	0	12.2	;
	14	180	0.00411	0.02110	0.00788	255	260	260	0	0	1	-360	360	0	0	0	0	0	12.0	;
	14	185	0.01114	0.03788	0.01266	191	204	222	0	0	1	-360	360	0	0	0	0	0	20.5	;
	14	186	0.02662	0.09054	0.02905	185	204	222	0	0	1	-360	360	0	0	0	0	0	48.4	;
	14	246	0.00408	0.02092	0.00779	255	260	260	0	0	1	-360	360	0	0	0	0	0	12.0	;
	15	22	0.02154	0.10932	0.04126	224	248	260	0	0	1	-360	360	0	0	0	0	0	63.4	;
	15	22	0.02154	0.10932	0.04126	224	248	260	0	0	1	-360	360	0	0	0	0	0	63.4	;
	15	26	0.00974	0.05968	0.02055	260	260	260	0	0	1	-360	360	0	0	0	0	0	32.6	;
	15	27	0.02701	0.09576	0.03037	191	204	222	0	0	1	-360	360	0	0	0	0	0	50.5	;
	15	28	0.03335	0.10915	0.03827	195	204	222	0	0	1	-360	360	0	0	0	0	0	60.7	;
	15	29	0.05251	0.17172	0.06032	195	204	222	0	0	1	-360	360	0	0	0	0	0	95.6	;
	15	183	0.00164	0.01656	0.01111	340	340	340	0	0	1	-360	360	0	0	0	0	0	12.8	;
	15	250	0.00184	0.00954	0.00342	130	130	130	0	0	1	-360	360	0	0	0	0	0	5.4	;
	15	250	0.00187	0.00974	0.00349	130	130	130	0	0	1	-360	360	0	0	0	0	0	5.5	;
	15	255	0.00282	0.01157	0.02727	260	273	296	0	0	1	-360	360	0	0	0	0	0	5.9	;
	16	178	0.00839	0.03586	0.01167	104	123	130	0	0	1	-360	360	0	0	0	0	0	19.0	;
	17	21	0.01658	0.06789	0.02323	195	204	222	0	0	1	-360	360	0	0	0	0	0	37.9	;
	17	21	0.00900	0.05720	0.02480	260	273	296	0	0	1	-360	360	0	0	0	0	0	35.0	;
	17	25	0.01638	0.06453	0.02191	104	123	153	0	0	1	-360	360	0	0	0	0	0	35.2	;
	17	184	0.01106	0.03018	0.01032	91	108	134	0	0	1	-360	360	0	0	0	0	0	16.6	;
	18	25	0.01295	0.04125	0.01502	104	123	153	0	0	1	-360	360	0	0	0	0	0	23.6	;
	18	25	0.01293	0.04111	0.01508	104	123	153	0	0	1	-360	360	0	0	0	0	0	23.6	;
	18	32	0.02192	0.07804	0.02533	195	204	222	0	0	1	-360	360	0	0	0	0	0	41.7	;
	19	186	0.02662	0.09054	0.02905	185	204	222	0	0	1	-360	360	0	0	0	0	0	48.4	;
	21	30	0.01441	0.06067	0.02080	195	204	222	0	0	1	-360	360	0	0	0	0	0	33.3	;
	21	251	0.00610	0.04180	0.01950	260	273	296	0	0	1	-360	360	0	0	0	0	0	26.5	;
	22	34	0.01325	0.06238	0.06238	337	372	411	0	0	1	-360	360	0	0	0	0	0	57.9	;
	22	245	0.01212	0.04116	0.01324	81	123	130	0	0	1	-360	360	0	0	0	0	0	22.0	;
	23	34	0.01185	0.06135	0.02247	255	260	260	0	0	1	-360	360	0	0	0	0	0	35.1	;
	23	34	0.01185	0.06135	0.02247	255	260	260	0	0	1	-360	360	0	0	0	0	0	35.1	;
	23	34	0.01580	0.07475	0.02730	255	260	260	0	0	1	-360	360	0	0	0	0	0	42.7	;
	24	31	0.00310	0.03271	0.07540	520	520	520	0	0	1	-360	360	0	0	0	0	0	46.5	;
	24	35	0.01164	0.12660	0.06946	253	273	296	0	0	1	-360	360	0	0	0	0	0	88.8	;
	24	181	0.00436	0.01464	0.00484	189	195	195	0	0	1	-360	360	0	0	0	0	0	7.8	;
	24	248	0.00715	0.03705	0.01350	227	248	381	0	0	1	-360	360	0	0	0	0	0	20.8	;
	24	248	0.00715	0.03705	0.01350	227	248	381	0	0	1	-360	360	0	0	0	0	0	20.8	;
	24	252	0.01240	0.06509	0.02314	253	260	260	0	0	1	-360	360	0	0	0	0	0	36.3	;
	25	32	0.01065	0.03476	0.01219	195	204	222	0	0	1	-360	360	0	0	0	0	0	19.3	;
	25	32	0.01069	0.03488	0.01223	195	204	222	0	0	1	-360	360	0	0	0	0	0	19.3	;
	25	32	0.00504	0.02690	0.01516	233	248	260	0	0	1	-360	360	0	0	0	0	0	18.0	;
	27	185	0.01114	0.03788	0.01266	191	204	222	0	0	1	-360	360	0	0	0	0	0	20.5	;
	28	29	0.01921	0.06275	0.02210	195	204	222	0	0	1	-360	360	0	0	0	0	0	35.2	;
	30	32	0.00729	0.02383	0.00834	195	204	222	0	0	1	-360	360	0	0	0	0	0	13.2	;
	30	32	0.00729	0.02383	0.00834	195	204	222	0	0	1	-360	360	0	0	0	0	0	13.2	;
	30	32	0.00732	0.02829	0.00946	195	204	222	0	0	1	-360	360	0	0	0	0	0	15.4	;
	30	33	0.00260	0.02724	0.01640	520	520	520	0	0	1	-360	360	0	0	0	0	0	19.8	;
	30	174	0.00358	0.02407	0.00900	260	260	260	0	0	1	-360	360	0	0	0	0	0	13.8	;
	30	179	0.00403	0.01370	0.00440	104	123	153	0	0	1	-360	360	0	0	0	0	0	7.3	;
	30	184	0.01106	0.03018	0.01032	91	108	134	0	0	1	-360	360	0	0	0	0	0	16.6	;
	31	248	0.00715	0.03705	0.01350	227	248	381	0	0	1	-360	360	0	0	0	0	0	20.8	;
	31	248	0.00715	0.03705	0.01350	227	248	381	0	0	1	-360	360	0	0	0	0	0	20.8	;
	31	253	0.01091	0.05722	0.02036	253	260	260	0	0	1	-360	360	0	0	0	0	0	31.9	;
	32	33	0.00695	0.04818	0.02461	504	520	520	0	0	1	-360	360	0	0	0	0	0	32.2	;
	32	254	0.01869	0.10188	0.03320	260	273	296	0	0	1	-360	360	0	0	0	0	0	53.5	;
	32	254	0.01869	0.10188	0.03320	260	273	296	0	0	1	-360	360	0	0	0	0	0	53.5	;
	33	173	0.00082	0.00526	0.00200	306	321	348	0	0	1	-360	360	0	0	0	0	0	3.0	;
	33	177	0.00830	0.02880	0.00938	104	104	104	0	0	1	-360	360	0	0	0	0	0	15.3	;
	33	182	0.00023	0.00161	0.00056	306	321	348	0	0	1	-360	360	0	0	0	0	0	0.9	;
	33	184	0.00504	0.03382	0.01267	274	291	322	0	0	1	-360	360	0	0	0	0	0	19.3	;
	36	64	0.00418	0.02292	0.13770	666	728	804	0	0	1	-360	360	0	0	0	0	0	52.3	;
	36	71	0.00396	0.02133	0.13035	666	728	804	0	0	1	-360	360	0	0	0	0	0	48.9	;
	36	187	0.00011	0.00060	0.00094	191	191	191	0	0	1	-360	360	0	0	0	0	0	0.7	;
	36	188	0.00018	0.00061	0.00092	191	191	191	0	0	1	-360	360	0	0	0	0	0	0.7	;
	36	189	0.00018	0.00061	0.00092	191	191	191	0	0	1	-360	360	0	0	0	0	0	0.8	;
	37	59	0.00168	0.00382	0.35975	493	493	493	0	0	1	-360	360	0	0	0	0	0	10.4	;
	37	213	0.00017	0.00044	0.04927	322	322	322	0	0	1	-360	360	0	0	0	0	0	1.8	;
	37	214	0.00017	0.00044	0.04927	322	322	322	0	0	1	-360	360	0	0	0	0	0	1.8	;
	37	215	0.00017	0.00044	0.04927	322	322	322	0	0	1	-360	360	0	0	0	0	0	1.8	;
	37	216	0.00017	0.00044	0.04927	322	322	322	0	0	1	-360	360	0	0	0	0	0	1.8	;
	38	208	0.00048	0.00109	0.10268	493	493	493	0	0	1	-360	360	0	0	0	0	0	3.2	;
	38	209	0.00048	0.00108	0.10056	493	493	493	0	0	1	-360	360	0	0	0	0	0	3.2	;
	39	45	0.01696	0.09185	0.14133	381	381	381	0	0	1	-360	360	0	0	0	0	0	106.8	;
	39	69	0.00691	0.03721	0.05799	342	364	381	0	0	1	-360	360	0	0	0	0	0	43.0	;
	39	69	0.00687	0.03725	0.05671	381	381	381	0	0	1	-360	360	0	0	0	0	0	43.0	;
	39	71	0.00183	0.01006	0.05957	684	727	762	0	0	1	-360	360	0	0	0	0	0	22.2	;
	39	78	0.00658	0.03647	0.05332	382	400	435	0	0	1	-360	360	0	0	0	0	0	41.1	;
	39	195	0.00484	0.02634	0.04046	199	237	297	0	0	1	-360	360	0	0	0	0	0	30.4	;
	39	199	0.00873	0.04861	0.07070	381	381	381	0	0	1	-360	360	0	0	0	0	0	54.7	;
	39	258	0.00326	0.01810	0.02629	382	400	435	0	0	1	-360	360	0	0	0	0	0	20.3	;
	39	258	0.00240	0.01307	0.02007	199	237	297	0	0	1	-360	360	0	0	0	0	0	15.1	;
	40	51	0.00874	0.04843	0.07272	374	400	435	0	0	1	-360	360	0	0	0	0	0	54.7	;
	40	65	0.00985	0.05518	0.07982	333	364	381	0	0	1	-360	360	0	0	0	0	0	61.9	;
	40	65	0.00944	0.05439	0.07975	333	364	381	0	0	1	-360	360	0	0	0	0	0	61.8	;
	40	196	0.00017	0.00091	0.00135	182	237	297	0	0	1	-360	360	0	0	0	0	0	1.0	;
	40	198	0.00214	0.01565	0.02877	439	471	511	0	0	1	-360	360	0	0	0	0	0	19.6	;
	40	5	0.00630	0.03584	0.05497	374	400	435	0	0	1	-360	360	0	0	0	0	0	41.1	;
	40	5	0.00636	0.03628	0.05564	374	400	435	0	0	1	-360	360	0	0	0	0	0	41.4	;
	40	6	0.00481	0.02670	0.03939	360	390	430	0	0	1	-360	360	0	0	0	0	0	30.2	;
	41	53	0.00145	0.00845	0.01465	381	381	381	0	0	1	-360	360	0	0	0	0	0	10.4	;
	41	53	0.00078	0.00546	0.00902	381	381	381	0	0	1	-360	360	0	0	0	0	0	6.5	;
	41	57	0.00318	0.01660	0.02798	381	381	381	0	0	1	-360	360	0	0	0	0	0	20.2	;
	41	68	0.00084	0.00572	0.00995	401	426	472	0	0	1	-360	360	0	0	0	0	0	7.0	;
	41	68	0.00170	0.00386	0.36133	493	493	493	0	0	1	-360	360	0	0	0	0	0	10.7	;
	41	210	0.00056	0.00586	0.01715	762	762	762	0	0	1	-360	360	0	0	0	0	0	9.4	;
	41	211	0.00221	0.02313	0.06702	762	762	762	0	0	1	-360	360	0	0	0	0	0	37.0	;
	42	78	0.00448	0.02493	0.03617	382	400	435	0	0	1	-360	360	0	0	0	0	0	28.0	;
	42	78	0.00448	0.02494	0.03619	382	400	435	0	0	1	-360	360	0	0	0	0	0	28.0	;
	42	257	0.00276	0.01543	0.02230	381	381	381	0	0	1	-360	360	0	0	0	0	0	17.3	;
	42	257	0.00274	0.01524	0.02237	381	381	381	0	0	1	-360	360	0	0	0	0	0	17.3	;
	43	58	0.00210	0.00476	0.44633	493	493	493	0	0	1	-360	360	0	0	0	0	0	12.6	;
	43	76	0.00113	0.00321	0.34652	446	446	446	0	0	1	-360	360	0	0	0	0	0	11.1	;
	43	76	0.00113	0.00320	0.34511	446	446	446	0	0	1	-360	360	0	0	0	0	0	11.1	;
	43	204	0.00146	0.00771	0.01235	381	381	381	0	0	1	-360	360	0	0	0	0	0	9.2	;
	43	205	0.00063	0.00332	0.00533	381	381	381	0	0	1	-360	360	0	0	0	0	0	3.9	;
	43	219	0.00083	0.00445	0.00676	342	364	381	0	0	1	-360	360	0	0	0	0	0	5.4	;
	44	48	0.00396	0.02139	0.03311	342	364	381	0	0	1	-360	360	0	0	0	0	0	24.9	;
	44	66	0.00779	0.04029	0.06834	381	381	381	0	0	1	-360	360	0	0	0	0	0	50.9	;
	44	66	0.00311	0.03080	0.09461	897	941	1021	0	0	1	-360	360	0	0	0	0	0	50.7	;
	44	193	0.00504	0.02686	0.04234	381	381	381	0	0	1	-360	360	0	0	0	0	0	31.7	;
	45	46	0.00650	0.03510	0.05270	382	400	435	0	0	1	-360	360	0	0	0	0	0	40.2	;
	45	46	0.00608	0.03139	0.05420	382	400	435	0	0	1	-360	360	0	0	0	0	0	38.8	;
	45	46	0.00614	0.03155	0.05417	382	400	435	0	0	1	-360	360	0	0	0	0	0	38.8	;
	45	74	0.00586	0.03263	0.04775	381	381	381	0	0	1	-360	360	0	0	0	0	0	36.7	;
	45	199	0.00873	0.04861	0.07070	381	381	381	0	0	1	-360	360	0	0	0	0	0	54.7	;
	46	50	0.00409	0.02221	0.03328	381	400	435	0	0	1	-360	360	0	0	0	0	0	25.4	;
	46	64	0.00275	0.01510	0.09065	666	728	804	0	0	1	-360	360	0	0	0	0	0	34.8	;
	46	214	0.00477	0.02559	0.04001	381	381	381	0	0	1	-360	360	0	0	0	0	0	30.0	;
	46	216	0.00465	0.02524	0.03797	382	400	435	0	0	1	-360	360	0	0	0	0	0	28.9	;
	46	222	0.00006	0.00021	0.02068	438	438	438	0	0	1	-360	360	0	0	0	0	0	0.8	;
	46	260	0.00913	0.04888	0.07531	342	364	381	0	0	1	-360	360	0	0	0	0	0	56.8	;
	47	57	0.01028	0.05388	0.08954	381	381	381	0	0	1	-360	360	0	0	0	0	0	65.0	;
	47	61	0.00034	0.00182	0.00285	199	237	297	0	0	1	-360	360	0	0	0	0	0	2.1	;
	47	66	0.00525	0.02886	0.04430	381	381	381	0	0	1	-360	360	0	0	0	0	0	33.4	;
	47	67	0.00789	0.04153	0.06856	381	381	381	0	0	1	-360	360	0	0	0	0	0	50.0	;
	47	75	0.00724	0.03931	0.05957	382	400	435	0	0	1	-360	360	0	0	0	0	0	45.0	;
	47	197	0.00304	0.02737	0.07433	762	762	762	0	0	0	-360	360	0	0	0	0	0	42.1	;
	47	211	0.00221	0.02313	0.06702	762	762	762	0	0	1	-360	360	0	0	0	0	0	37.0	;
	47	224	0.00039	0.00426	0.01070	750	762	762	0	0	1	-360	360	0	0	0	0	0	6.4	;
	48	66	0.01101	0.05739	0.09535	381	381	381	0	0	1	-360	360	0	0	0	0	0	69.5	;
	48	69	0.00352	0.01887	0.02971	342	364	381	0	0	1	-360	360	0	0	0	0	0	22.6	;
	48	69	0.00350	0.01889	0.02900	381	381	381	0	0	1	-360	360	0	0	0	0	0	22.0	;
	49	57	0.00169	0.00872	0.05960	381	381	381	0	0	1	-360	360	0	0	0	0	0	21.4	;
	49	193	0.00037	0.00490	0.01932	1200	1200	1200	0	0	1	-360	360	0	0	0	0	0	9.2	;
	49	221	0.00055	0.00728	0.02882	762	762	762	0	0	1	-360	360	0	0	0	0	0	13.7	;
	50	55	0.00311	0.01663	0.02615	381	381	381	0	0	1	-360	360	0	0	0	0	0	19.5	;
	50	55	0.00252	0.01377	0.02062	381	381	381	0	0	1	-360	360	0	0	0	0	0	15.8	;
	50	56	0.00162	0.01419	0.06090	762	762	762	0	0	1	-360	360	0	0	0	0	0	27.0	;
	50	204	0.00146	0.00771	0.01235	381	381	381	0	0	1	-360	360	0	0	0	0	0	9.2	;
	50	213	0.00210	0.01087	0.01848	381	381	381	0	0	1	-360	360	0	0	0	0	0	13.3	;
	50	215	0.00316	0.01718	0.02582	382	400	435	0	0	1	-360	360	0	0	0	0	0	19.7	;
	50	217	0.00182	0.00952	0.01558	382	400	435	0	0	1	-360	360	0	0	0	0	0	11.3	;
	51	66	0.00711	0.03753	0.06399	382	400	435	0	0	1	-360	360	0	0	0	0	0	45.9	;
	51	66	0.00712	0.03759	0.06408	382	400	435	0	0	1	-360	360	0	0	0	0	0	46.0	;
	51	194	0.00465	0.02422	0.04046	382	400	435	0	0	1	-360	360	0	0	0	0	0	29.4	;
	51	194	0.00466	0.02427	0.04055	382	400	435	0	0	1	-360	360	0	0	0	0	0	29.5	;
	51	197	0.00016	0.00142	0.00404	825	864	938	0	0	1	-360	360	0	0	0	0	0	2.2	;
	51	224	0.00039	0.00426	0.01070	750	762	762	0	0	1	-360	360	0	0	0	0	0	6.4	;
	52	199	0.00057	0.00311	0.00469	191	191	191	0	0	1	-360	360	0	0	0	0	0	3.6	;
	53	68	0.00078	0.00545	0.00900	401	426	472	0	0	1	-360	360	0	0	0	0	0	6.6	;
	53	190	0.00222	0.01196	0.02035	381	381	381	0	0	1	-360	360	0	0	0	0	0	14.7	;
	54	63	0.00412	0.02158	0.03520	374	381	381	0	0	1	-360	360	0	0	0	0	0	25.7	;
	54	77	0.00631	0.03514	0.05182	374	400	435	0	0	1	-360	360	0	0	0	0	0	39.5	;
	54	77	0.00636	0.03898	0.06249	374	400	435	0	0	1	-360	360	0	0	0	0	0	46.1	;
	54	191	0.00237	0.01312	0.01925	182	229	229	0	0	1	-360	360	0	0	0	0	0	14.9	;
	54	191	0.00189	0.01296	0.02104	229	229	229	0	0	1	-360	360	0	0	0	0	0	15.5	;
	54	192	0.00309	0.01722	0.02516	374	400	435	0	0	1	-360	360	0	0	0	0	0	19.4	;
	54	200	0.00006	0.00035	0.00053	182	237	297	0	0	1	-360	360	0	0	0	0	0	0.4	;
	54	201	0.00006	0.00035	0.00053	182	237	297	0	0	1	-360	360	0	0	0	0	0	0.4	;
	54	202	0.00006	0.00035	0.00053	182	237	297	0	0	1	-360	360	0	0	0	0	0	0.4	;
	54	203	0.00005	0.00034	0.00053	182	237	297	0	0	1	-360	360	0	0	0	0	0	0.2	;
	55	58	0.00049	0.00177	0.22418	364	364	364	0	0	1	-360	360	0	0	0	0	0	7.8	;
	55	204	0.00041	0.00224	0.00340	381	381	381	0	0	1	-360	360	0	0	0	0	0	2.6	;
	55	205	0.00063	0.00332	0.00533	381	381	381	0	0	1	-360	360	0	0	0	0	0	3.9	;
	56	74	0.00719	0.04008	0.05857	382	400	435	0	0	1	-360	360	0	0	0	0	0	46.0	;
	56	205	0.00144	0.00779	0.01170	382	400	435	0	0	1	-360	360	0	0	0	0	0	8.9	;
	57	60	0.00351	0.01764	0.02842	381	381	381	0	0	1	-360	360	0	0	0	0	0	20.8	;
	57	67	0.00249	0.01299	0.02177	381	381	381	0	0	1	-360	360	0	0	0	0	0	15.7	;
	57	190	0.00222	0.01196	0.02035	381	381	381	0	0	1	-360	360	0	0	0	0	0	14.7	;
	57	210	0.00056	0.00586	0.01715	762	762	762	0	0	1	-360	360	0	0	0	0	0	9.4	;
	57	220	0.00042	0.00563	0.02152	1200	1200	1200	0	0	1	-360	360	0	0	0	0	0	10.4	;
	57	221	0.00055	0.00728	0.02882	762	762	762	0	0	1	-360	360	0	0	0	0	0	13.7	;
	58	219	0.00038	0.00138	0.17477	364	364	364	0	0	1	-360	360	0	0	0	0	0	6.2	;
	59	217	0.00204	0.00462	0.43235	493	493	493	0	0	1	-360	360	0	0	0	0	0	12.5	;
	60	66	0.00204	0.01097	0.01708	381	381	381	0	0	1	-360	360	0	0	0	0	0	12.8	;
	60	206	0.00004	0.00020	0.00031	191	191	191	0	0	1	-360	360	0	0	0	0	0	0.2	;
	60	207	0.00004	0.00024	0.00036	191	191	191	0	0	1	-360	360	0	0	0	0	0	0.3	;
	62	212	0.00201	0.01066	0.01664	374	381	381	0	0	1	-360	360	0	0	0	0	0	12.5	;
	62	259	0.00494	0.02909	0.05136	376	381	381	0	0	1	-360	360	0	0	0	0	0	36.5	;
...
];